%chk=C:\Users\dyyang\Desktop\dyyang_job\1_script_fix\lib\Au_electorde\150.120_Au.chk
%Subst L502 /usr1/ycliu2/bin/hclin.alacant/g09/antg09.bin/
%Subst L101 /usr1/ycliu2/bin/hclin.alacant/g09/antg09.bin/
%nprocshared=8
#p b3lyp/gen geom=connectivity formcheck gfinput pseudo=read
scf=(dsymm,conver=5,nodamp,maxcycle=1000)

150.120.

0 1
 S                 -2.88000000    0.00000000   -2.00000000
 Au                 0.00000000    0.00000000    0.00000000
 Au                 2.88000000    0.00000000    0.00000000
 Au                 2.88000000   -2.88000000    0.00000000
 Au                 0.00000000   -2.88000000    0.00000000
 Au                -2.88000000   -2.88000000    0.00000000
 Au                -2.88000000    0.00000000    0.00000000
 Au                -2.88000000    2.88000000    0.00000000
 Au                 0.00000000    2.88000000    0.00000000
 Au                 2.88000000    2.88000000    0.00000000
 Au                -1.43999971    1.43999971    2.03646753
 Au                 1.44000029    1.43999971    2.03646753
 Au                 1.44000029   -1.44000029    2.03646753
 Au                -1.43999971   -1.44000029    2.03646753
 Au                -4.31999971   -1.44000029    2.03646753
 Au                -4.31999971    1.43999971    2.03646753
 Au                -4.31999971    4.31999971    2.03646753
 Au                -1.43999971    4.31999971    2.03646753
 Au                 1.44000029    4.31999971    2.03646753
 Au                -2.88000000    2.88000000    4.07293506
 Au                 0.00000000    2.88000000    4.07293506
 Au                 0.00000000    0.00000000    4.07293506
 Au                -2.88000000    0.00000000    4.07293506
 Au                -5.76000000    0.00000000    4.07293506
 Au                -5.76000000    2.88000000    4.07293506
 Au                -5.76000000    5.76000000    4.07293506
 Au                -2.88000000    5.76000000    4.07293506
 Au                 0.00000000    5.76000000    4.07293506
 Au                -1.43999971    1.43999971    6.10940259
 Au                 1.44000029    1.43999971    6.10940259
 Au                 1.44000029   -1.44000029    6.10940259
 Au                -1.43999971   -1.44000029    6.10940259
 Au                -4.31999971   -1.44000029    6.10940259
 Au                -4.31999971    1.43999971    6.10940259
 Au                -4.31999971    4.31999971    6.10940259
 Au                -1.43999971    4.31999971    6.10940259
 Au                 1.44000029    4.31999971    6.10940259

 1 7 1.0
 2 3 1.0 7 1.0 9 1.0 5 1.0 14 1.0 11 1.0 12 1.0 13 1.0
 3 10 1.0 4 1.0 13 1.0 12 1.0
 4 5 1.0 13 1.0
 5 6 1.0 14 1.0 13 1.0
 6 7 1.0 14 1.0 15 1.0
 7 8 1.0 16 1.0 11 1.0 15 1.0 14 1.0
 8 9 1.0 17 1.0 18 1.0 16 1.0 11 1.0
 9 10 1.0 11 1.0 18 1.0 19 1.0 12 1.0
 10 12 1.0 19 1.0
 11 16 1.0 18 1.0 12 1.0 14 1.0 21 1.0 20 1.0 23 1.0 22 1.0
 12 19 1.0 13 1.0 21 1.0 22 1.0
 13 14 1.0 22 1.0
 14 15 1.0 23 1.0 22 1.0
 15 16 1.0 24 1.0 23 1.0
 16 17 1.0 20 1.0 25 1.0 24 1.0 23 1.0
 17 18 1.0 27 1.0 26 1.0 25 1.0 20 1.0
 18 19 1.0 27 1.0 28 1.0 20 1.0 21 1.0
 19 28 1.0 21 1.0
 20 23 1.0 25 1.0 27 1.0 21 1.0 35 1.0 36 1.0 29 1.0 34 1.0
 21 22 1.0 28 1.0 36 1.0 37 1.0 30 1.0 29 1.0
 22 23 1.0 29 1.0 30 1.0 31 1.0 32 1.0
 23 29 1.0 32 1.0 33 1.0 34 1.0 24 1.0
 24 25 1.0 34 1.0 33 1.0
 25 26 1.0 35 1.0 34 1.0
 26 27 1.0 35 1.0
 27 28 1.0 35 1.0 36 1.0
 28 36 1.0 37 1.0
 29 34 1.0 30 1.0 32 1.0 36 1.0
 30 37 1.0 31 1.0
 31 32 1.0
 32 33 1.0
 33 34 1.0
 34 35 1.0
 35 36 1.0
 36 37 1.0
 37

