%mem=30GB
%nprocshared=12
%chk=heme_2his_no.chk
#p opt=(modredundant,maxcycle=500) b3lyp/genecp nosymm
scf=(qc,conver=6,novaracc) geom=connectivity int=ultrafine

heme_2his_no

0 2
 C	2.43147600	-2.45062000	0.12421300
 C	2.46528200	2.35137700	0.53109000
 C	-2.35294700	2.39849500	0.30138600
 C	-2.38510200	-2.39845200	-0.12078100
 C	2.86531400	-1.13729000	0.26865000
 C	4.26241800	-0.74187800	0.33911300
 C	4.27110500	0.62168400	0.46015900
 C	2.88065100	1.03396700	0.44552200
 C	5.44499800	1.54814000	0.57249200
 C	5.42715300	-1.66936900	0.15843000
 C	5.66316400	-1.96978100	-1.33108300
 C	6.75431300	-2.98167000	-1.56851300
 O	6.98740500	-3.16597000	-2.89286400
 O	7.36759900	-3.58364000	-0.71343400
 C	1.14426600	2.77192700	0.49453000
 C	0.75928500	4.16298100	0.60224300
 C	-0.60854100	4.19220100	0.50641800
 C	-1.02934100	2.79752600	0.38154200
 C	1.70858500	5.31447200	0.74127000
 C	-1.44399100	5.39307300	0.52476200
 C	-2.54963000	5.63511100	-0.19532300
 C	-2.78409100	1.08959600	0.15018100
 C	-4.17913500	0.71308000	0.04851200
 C	-4.19471400	-0.65766500	-0.07515400
 C	-2.79943300	-1.07804500	-0.02639400
 C	-5.34218700	1.65413300	0.12400700
 C	-5.32802000	-1.56978400	-0.18186500
 C	-6.52857100	-1.30974900	-0.72382900
 C	-1.06778300	-2.82022600	-0.07599700
 C	-0.67827100	-4.21820800	-0.16096100
 C	0.68438700	-4.23613300	-0.08741600
 C	1.10383300	-2.84723300	0.03676900
 C	-1.62778300	-5.37193400	-0.28363800
 C	1.59953000	-5.42315900	-0.03839000
 C	1.96733500	-5.79846600	1.40668900
 C	2.94030100	-6.94720800	1.48541800
 O	3.38442200	-7.14624300	2.75469000
 O	3.30585200	-7.63958900	0.56026000
 N	2.03843200	-0.04469300	0.31347800
 N	0.04953000	1.94804100	0.36977500
 N	-1.95553800	-0.00757200	0.10507300
 N	0.02653800	-1.99840900	0.04856600
 Fe	0.04299400	-0.02285900	0.18023900
 H	3.18837400	-3.22675000	0.08222200
 H	3.22959600	3.11318900	0.63727900
 H	-3.10603200	3.17182500	0.36719600
 H	-3.14707800	-3.15945400	-0.24079200
 H	6.38808000	0.99593900	0.61095400
 H	5.50402100	2.23972400	-0.27720300
 H	5.38776300	2.16268300	1.47879000
 H	5.27424900	-2.61696600	0.68619600
 H	6.33823700	-1.23769900	0.58465400
 H	4.74613800	-2.35127400	-1.79650400
 H	5.91302700	-1.05508000	-1.88124200
 H	2.36153500	5.19829700	1.61458700
 H	2.36029000	5.41155600	-0.13625200
 H	1.17275600	6.26056000	0.85018700
 H	-1.09120700	6.18939100	1.18120400
 H	-2.94224800	4.92493600	-0.91571500
 H	-3.08170400	6.57652200	-0.09743200
 H	-6.22784500	1.13934400	0.50796000
 H	-5.60862100	2.06693600	-0.85832600
 H	-5.13295000	2.50175400	0.78353300
 H	-5.17049700	-2.56689300	0.22874300
 H	-6.76334200	-0.36080300	-1.19420500
 H	-7.31159900	-2.06181100	-0.72809500
 H	-1.09255300	-6.31729700	-0.40849600
 H	-2.29652900	-5.25753700	-1.14513800
 H	-2.26548000	-5.47020300	0.60370700
 H	2.52062400	-5.23531500	-0.60134300
 H	1.13529000	-6.28928700	-0.51947800
 H	2.39111000	-4.94417300	1.94517700
 H	1.07014300	-6.07609700	1.97405400
 H	7.68871300	-3.83667500	-2.95029300
 H	3.98464400	-7.90949500	2.70668600
 N	4.48953100	-2.01078100	9.07885200
 C	3.85826600	-1.63579800	7.80616100
 C	3.40654400	-0.15977500	7.85887200
 O	2.40000300	0.26810200	7.35524900
 C	2.69358500	-2.54087200	7.30803900
 C	2.27344800	-2.33154400	5.88232900
 N	3.08194400	-2.65627700	4.80127800
 C	1.12714500	-1.83065500	5.31187400
 C	2.40028600	-2.34745800	3.65860200
 N	1.21452900	-1.83787100	3.93358300
 N	0.89534100	-1.62196800	-6.48733600
 C	-0.48795300	-1.66212300	-6.06776400
 C	-1.43268000	-1.93097100	-7.23034900
 O	-2.61281500	-1.68810200	-7.21693000
 C	-0.93034300	-0.37688200	-5.32568100
 C	-0.29773100	-0.21619800	-3.98265200
 N	1.07288300	-0.20742800	-3.80649100
 C	-0.81958000	-0.05081500	-2.72333100
 C	1.32854300	-0.05932400	-2.48389100
 N	0.20122700	0.03868500	-1.79246900
 N	-0.02293500	-0.14974700	2.27536500
 O	0.73138600	-0.28186900	3.16844600
 H	1.82060100	-2.38291800	7.94917200
 H	3.00965300	-3.58291600	7.45638800
 H	0.25833900	-1.43306300	5.81627000
 H	4.00740800	-3.05661900	4.84224300
 H	2.80939400	-2.47245300	2.66691000
 H	4.65883400	-1.65151300	7.05300900
 H	3.79386000	-2.13174100	9.81071400
 H	4.99938500	-2.88353900	8.98529800
 H	-2.01554900	-0.40896300	-5.21045400
 H	-0.70962200	0.48491500	-5.97232200
 H	-1.85309600	0.00118600	-2.42349300
 H	1.72738200	-0.43363300	-4.54443900
 H	2.32020500	-0.04152200	-2.06685000
 H	-0.61082500	-2.51006900	-5.38100900
 H	1.27962300	-2.53925400	-6.68377900
 H	1.03916200	-1.02505300	-7.29602700
 S	-0.62789800	-2.70734900	-8.68519200
 H	-1.80047600	-2.86367200	-9.32896400
 S	4.57544500	0.89020400	8.77792500
 H	3.93467100	2.02005700	8.41193600

 1 5 1.0 32 2.0 44 1.0
 2 15 1.0 8 2.0 45 1.0
 3 22 2.0 18 1.0 46 1.0
 4 25 1.0 29 2.0 47 1.0
 5 39 2.0 6 1.0
 6 7 2.0 10 1.0
 7 8 1.0 9 1.0
 8 39 1.0
 9 48 1.0 49 1.0 50 1.0
 10 11 1.0 51 1.0 52 1.0
 11 12 1.0 53 1.0 54 1.0
 12 13 1.0 14 2.0
 13 74 1.0
 14
 15 16 2.0 40 1.0
 16 17 1.0 19 1.0
 17 18 2.0 20 1.0
 18 40 1.0
 19 55 1.0 56 1.0 57 1.0
 20 21 2.0 58 1.0
 21 59 1.0 60 1.0
 22 23 1.0 41 1.0
 23 24 2.0 26 1.0
 24 25 1.0 27 1.0
 25 41 2.0
 26 61 1.0 62 1.0 63 1.0
 27 28 2.0 64 1.0
 28 65 1.0 66 1.0
 29 42 1.0 30 1.0
 30 31 2.0 33 1.0
 31 32 1.0 34 1.0
 32 42 1.0
 33 67 1.0 68 1.0 69 1.0
 34 35 1.0 70 1.0 71 1.0
 35 36 1.0 72 1.0 73 1.0
 36 38 2.0 37 1.0
 37 75 1.0
 38
 39 43 0.5
 40 43 1.0
 41 43 0.5
 42 43 1.0
 43
 44
 45
 46
 47
 48
 49
 50
 51
 52
 53
 54
 55
 56
 57
 58
 59
 60
 61
 62
 63
 64
 65
 66
 67
 68
 69
 70
 71
 72
 73
 74
 75
 76 77 1.0 104 1.0 105 1.0
 77 78 1.0 80 1.0 103 1.0
 78 79 2.0 116 1.0
 79
 80 81 1.0 98 1.0 99 1.0
 81 82 1.0 83 2.0
 82 84 1.0 101 1.0
 83 85 1.0 100 1.0
 84 85 2.0 102 1.0
 85
 86 87 1.0 112 1.0 113 1.0
 87 88 1.0 90 1.0 111 1.0
 88 89 2.0 114 1.0
 89
 90 91 1.0 106 1.0 107 1.0
 91 93 2.0 92 1.0
 92 94 1.0 109 1.0
 93 95 1.0 108 1.0
 94 95 2.0 110 1.0
 95
 96 97 3.0
 97
 98
 99
 100
 101
 102
 103
 104
 105
 106
 107
 108
 109
 110
 111
 112
 113
 114 115 1.0
 115
 116 117 1.0
 117

X 36 F
X 12 F
X 76 F
X 78 F
X 86 F
X 88 F
B 97 85 F
B 114 116 F
B 43 96 F
B 43 39 F
B 43 40 F
B 43 41 F
B 43 42 F
B 43 95 F
D 39 42 40 15 F
D 39 42 40 18 F
D 41 42 40 15 F
D 41 42 40 18 F
D 40 39 41 22 F
D 40 39 41 25 F
D 42 39 41 22 F
D 42 39 41 25 F
D 41 40 42 29 F
D 41 40 42 32 F
D 39 40 42 29 F
D 39 40 42 32 F
D 42 41 39 5 F
D 42 41 39 8 F
D 40 41 39 5 F
D 40 41 39 8 F

1-42 44-117
6-31g(d,p)
****
43
LanL2DZ
****

43
LanL2DZ



