%chk=C:\Users\dyyang\Desktop\dyyang_job\1_script_fix\lib\Au_electorde\150.120_Au.chk
%Subst L502 /usr1/ycliu2/bin/hclin.alacant/g09/antg09.bin/
%Subst L101 /usr1/ycliu2/bin/hclin.alacant/g09/antg09.bin/
%nprocshared=8
#p b3lyp/gen geom=connectivity formcheck gfinput pseudo=read
scf=(dsymm,conver=5,nodamp,maxcycle=1000)

150.120.

0 1
 S                  0.00000000    2.92890000    0.00000000
 Au                -2.92890000   -2.92890000    2.31460000
 Au                 0.00000000   -2.92890000    2.31460000
 Au                 2.92890000   -2.92890000    2.31460000
 Au                -2.92890000    0.00000000    2.31460000
 Au                 0.00000000    0.00000000    2.31460000
 Au                 2.92890000    0.00000000    2.31460000
 Au                -2.92890000    2.92890000    2.31460000
 Au                 0.00000000    2.92890000    2.31460000
 Au                 2.92890000    2.92890000    2.31460000
 Au                -1.46445191   -1.46445191    4.38564234
 Au                 1.46444809   -1.46445191    4.38564234
 Au                 4.39334809   -1.46445191    4.38564234
 Au                -1.46445191    1.46444809    4.38564234
 Au                 1.46444809    1.46444809    4.38564234
 Au                 4.39334809    1.46444809    4.38564234
 Au                -1.46445191    4.39334809    4.38564234
 Au                 1.46444809    4.39334809    4.38564234
 Au                 4.39334809    4.39334809    4.38564234
 Au                 0.00000000    0.00000000    6.45668468
 Au                 2.92890000    0.00000000    6.45668468
 Au                 5.85780000    0.00000000    6.45668468
 Au                 0.00000000    2.92890000    6.45668468
 Au                 2.92890000    2.92890000    6.45668468
 Au                 5.85780000    2.92890000    6.45668468
 Au                 0.00000000    5.85780000    6.45668468
 Au                 2.92890000    5.85780000    6.45668468
 Au                 5.85780000    5.85780000    6.45668468
 Au                -1.46445191   -1.46445191    8.52772702
 Au                 1.46444809   -1.46445191    8.52772702
 Au                 4.39334809   -1.46445191    8.52772702
 Au                -1.46445191    1.46444809    8.52772702
 Au                 1.46444809    1.46444809    8.52772702
 Au                 4.39334809    1.46444809    8.52772702
 Au                -1.46445191    4.39334809    8.52772702
 Au                 1.46444809    4.39334809    8.52772702
 Au                 4.39334809    4.39334809    8.52772702

 1 9 1.0
 2 3 1.0 5 1.0 11 1.0
 3 4 1.0 6 1.0 11 1.0 12 1.0
 4 7 1.0 12 1.0 13 1.0
 5 6 1.0 8 1.0 11 1.0 14 1.0
 6 7 1.0 9 1.0 11 1.0 12 1.0 14 1.0 15 1.0
 7 10 1.0 12 1.0 13 1.0 15 1.0 16 1.0
 8 9 1.0 14 1.0 17 1.0
 9 10 1.0 14 1.0 15 1.0 17 1.0 18 1.0
 10 15 1.0 16 1.0 18 1.0 19 1.0
 11 12 1.0 14 1.0 20 1.0
 12 13 1.0 15 1.0 20 1.0 21 1.0
 13 16 1.0 21 1.0 22 1.0
 14 15 1.0 17 1.0 20 1.0 23 1.0
 15 16 1.0 18 1.0 20 1.0 21 1.0 23 1.0 24 1.0
 16 19 1.0 21 1.0 22 1.0 24 1.0 25 1.0
 17 18 1.0 23 1.0 26 1.0
 18 19 1.0 23 1.0 24 1.0 26 1.0 27 1.0
 19 24 1.0 25 1.0 27 1.0 28 1.0
 20 21 1.0 23 1.0 29 1.0 30 1.0 32 1.0 33 1.0
 21 22 1.0 24 1.0 30 1.0 31 1.0 33 1.0 34 1.0
 22 25 1.0 31 1.0 34 1.0
 23 24 1.0 26 1.0 32 1.0 33 1.0 35 1.0 36 1.0
 24 25 1.0 27 1.0 33 1.0 34 1.0 36 1.0 37 1.0
 25 28 1.0 34 1.0 37 1.0
 26 27 1.0 35 1.0 36 1.0
 27 28 1.0 36 1.0 37 1.0
 28 37 1.0
 29 30 1.0 32 1.0
 30 31 1.0 33 1.0
 31 34 1.0
 32 33 1.0 35 1.0
 33 34 1.0 36 1.0
 34 37 1.0
 35 36 1.0
 36 37 1.0
 37

