%chk=Right.chk
# hf/3-21g geom=connectivity

Title Card Required

0 2
 S                  0.00000000    0.00000000   -2.30000000
 Au                 0.00000000    0.00000000    0.00000000
 Au                 2.07162400    0.00000000    2.07162400
 Au                 0.00000000    2.07162400    2.07162400
 Au                 0.00000000   -2.07162400    2.07162400
 Au                -2.07162400    0.00000000    2.07162400
 Au                 4.14324800    0.00000000    4.14324800
 Au                 2.07162400    2.07162400    4.14324800
 Au                 0.00000000    4.14324800    4.14324800
 Au                 2.07162400   -2.07162400    4.14324800
 Au                 0.00000000    0.00000000    4.14324800
 Au                -2.07162400    2.07162400    4.14324800
 Au                 0.00000000   -4.14324800    4.14324800
 Au                -2.07162400   -2.07162400    4.14324800
 Au                -4.14324800    0.00000000    4.14324800
 Au                 2.07162400    0.00000000    6.21487200
 Au                 0.00000000    2.07162400    6.21487200
 Au                 0.00000000   -2.07162400    6.21487200
 Au                -2.07162400    0.00000000    6.21487200
 Au                 4.14324800    0.00000000    8.28649600
 Au                 2.07162400    2.07162400    8.28649600
 Au                 0.00000000    4.14324800    8.28649600
 Au                 2.07162400   -2.07162400    8.28649600
 Au                 0.00000000    0.00000000    8.28649600
 Au                -2.07162400    2.07162400    8.28649600
 Au                 0.00000000   -4.14324800    8.28649600
 Au                -2.07162400   -2.07162400    8.28649600
 Au                -4.14324800    0.00000000    8.28649600

 1 2 1.0
 2 3 1.0 4 1.0 5 1.0 6 1.0
 3 5 1.0 4 1.0 11 1.0 8 1.0 7 1.0 10 1.0
 4 6 1.0 11 1.0 12 1.0 9 1.0 8 1.0
 5 6 1.0 11 1.0 10 1.0 13 1.0 14 1.0
 6 11 1.0 12 1.0 15 1.0 14 1.0
 7 8 1.0 10 1.0 16 1.0
 8 9 1.0 11 1.0 16 1.0 17 1.0
 9 12 1.0 17 1.0
 10 13 1.0 11 1.0 18 1.0 16 1.0
 11 12 1.0 14 1.0 16 1.0 18 1.0 17 1.0 19 1.0
 12 15 1.0 19 1.0 17 1.0
 13 14 1.0 18 1.0
 14 15 1.0 18 1.0 19 1.0
 15 19 1.0
 16 17 1.0 18 1.0 24 1.0 23 1.0 20 1.0 21 1.0
 17 19 1.0 24 1.0 21 1.0 22 1.0 25 1.0
 18 19 1.0 24 1.0 26 1.0 27 1.0 23 1.0
 19 24 1.0 27 1.0 28 1.0 25 1.0
 20 23 1.0 21 1.0
 21 22 1.0 24 1.0
 22 25 1.0
 23 26 1.0 24 1.0
 24 27 1.0 25 1.0
 25 28 1.0
 26 27 1.0
 27 28 1.0
 28

