%chk=C:\Users\Assistant\Desktop\Au_S_non_111_2928737_L_top_middle.chk
%mem=5000MB
%nprocshared=12
#p b3lyp/gen geom=connectivity formcheck gfinput pseudo=read
scf=(dsymm,conver=5,nodamp,maxcycle=1000)

Au_S_non_111_2928737_L_top_middle

0 1
 Au                -1.44178931    1.44179057   -6.11699560
 Au                 1.44179069    1.44179057   -6.11699560
 Au                 4.32537069    1.44179057   -6.11699560
 Au                -1.44178931   -1.44178943   -6.11699560
 Au                 1.44179069   -1.44178943   -6.11699560
 Au                 4.32537069   -1.44178943   -6.11699560
 Au                -1.44178931   -4.32536943   -6.11699560
 Au                 1.44179069   -4.32536943   -6.11699560
 Au                 4.32537069   -4.32536943   -6.11699560
 Au                 0.00000083    0.00000071   -4.07799680
 Au                 2.88358083    0.00000071   -4.07799680
 Au                 5.76716083    0.00000071   -4.07799680
 Au                 0.00000083   -2.88357929   -4.07799680
 Au                 2.88358083   -2.88357929   -4.07799680
 Au                 5.76716083   -2.88357929   -4.07799680
 Au                 0.00000083   -5.76715929   -4.07799680
 Au                 2.88358083   -5.76715929   -4.07799680
 Au                 5.76716083   -5.76715929   -4.07799680
 Au                -1.44178999    1.44179005   -2.03899890
 Au                 1.44179001    1.44179005   -2.03899890
 Au                 4.32537001    1.44179005   -2.03899890
 Au                -1.44178999   -1.44178995   -2.03899890
 Au                 1.44179001   -1.44178995   -2.03899890
 Au                 4.32537001   -1.44178995   -2.03899890
 Au                -1.44178999   -4.32536995   -2.03899890
 Au                 1.44179001   -4.32536995   -2.03899890
 Au                 4.32537001   -4.32536995   -2.03899890
 Au                -2.88358000    2.88358000    0.00000000
 Au                 0.00000000    2.88358000    0.00000000
 Au                 2.88358000    2.88358000    0.00000000
 Au                -2.88358000    0.00000000    0.00000000
 Au                 0.00000000    0.00000000    0.00000000
 Au                 2.88358000    0.00000000    0.00000000
 Au                -2.88358000   -2.88358000    0.00000000
 Au                 0.00000000   -2.88358000    0.00000000
 Au                 2.88358000   -2.88358000    0.00000000

 1 4 1.0 10 1.0 2 1.0
 2 10 1.0 3 1.0 5 1.0 11 1.0
 3 6 1.0 11 1.0 12 1.0
 4 7 1.0 13 1.0 10 1.0 5 1.0
 5 13 1.0 10 1.0 8 1.0 14 1.0 6 1.0 11 1.0
 6 9 1.0 14 1.0 15 1.0 11 1.0 12 1.0
 7 13 1.0 16 1.0 8 1.0
 8 13 1.0 16 1.0 9 1.0 14 1.0 17 1.0
 9 14 1.0 15 1.0 17 1.0 18 1.0
 10 13 1.0 19 1.0 22 1.0 11 1.0 20 1.0 23 1.0
 11 14 1.0 12 1.0 20 1.0 21 1.0 23 1.0 24 1.0
 12 15 1.0 21 1.0 24 1.0
 13 16 1.0 25 1.0 22 1.0 14 1.0 26 1.0 23 1.0
 14 15 1.0 17 1.0 26 1.0 27 1.0 23 1.0 24 1.0
 15 18 1.0 27 1.0 24 1.0
 16 25 1.0 17 1.0 26 1.0
 17 18 1.0 26 1.0 27 1.0
 18 27 1.0
 19 22 1.0 28 1.0 29 1.0 31 1.0 32 1.0 20 1.0
 20 29 1.0 32 1.0 21 1.0 23 1.0 30 1.0 33 1.0
 21 24 1.0 30 1.0 33 1.0
 22 25 1.0 34 1.0 35 1.0 31 1.0 32 1.0 23 1.0
 23 35 1.0 32 1.0 26 1.0 36 1.0 24 1.0 33 1.0
 24 27 1.0 36 1.0 33 1.0
 25 34 1.0 35 1.0 26 1.0
 26 35 1.0 27 1.0 36 1.0
 27 36 1.0
 28 29 1.0 31 1.0
 29 32 1.0 30 1.0
 30 33 1.0
 31 34 1.0 32 1.0
 32 35 1.0 33 1.0
 33 36 1.0
 34 35 1.0
 35 36 1.0
 36

