%chk=C:\Users\Assistant\Desktop\Au_S_non_111_2928737_L_top_middle.chk
%mem=5000MB
%nprocshared=12
#p b3lyp/gen geom=connectivity formcheck gfinput pseudo=read
scf=(dsymm,conver=5,nodamp,maxcycle=1000)

Au_S_non_111_2928737_L_top_middle

0 1
 Au                 2.92971728   -2.92971728    0.00000000
 Au                 0.00000000   -2.92971728    0.00000000
 Au                -2.92971728   -2.92971728    0.00000000
 Au                 2.92971728    0.00000000    0.00000000
 Au                 0.00000000    0.00000000    0.00000000
 Au                -2.92971728    0.00000000    0.00000000
 Au                 2.92971728    2.92971728    0.00000000
 Au                 0.00000000    2.92971728    0.00000000
 Au                -2.92971728    2.92971728    0.00000000
 Au                 4.39457593   -4.39457587    2.07162288
 Au                 1.46485865   -4.39457587    2.07162288
 Au                -1.46485863   -4.39457587    2.07162288
 Au                 4.39457593   -1.46485859    2.07162288
 Au                 1.46485865   -1.46485859    2.07162288
 Au                -1.46485863   -1.46485859    2.07162288
 Au                 4.39457593    1.46485869    2.07162288
 Au                 1.46485865    1.46485869    2.07162288
 Au                -1.46485863    1.46485869    2.07162288
 Au                 5.85943540   -5.85943384    4.14324475
 Au                 2.92971812   -5.85943384    4.14324475
 Au                 0.00000084   -5.85943384    4.14324475
 Au                 5.85943540   -2.92971656    4.14324475
 Au                 2.92971812   -2.92971656    4.14324475
 Au                 0.00000084   -2.92971656    4.14324475
 Au                 5.85943540    0.00000072    4.14324475
 Au                 2.92971812    0.00000072    4.14324475
 Au                 0.00000084    0.00000072    4.14324475
 Au                 4.39457662   -4.39457534    6.21486753
 Au                 1.46485934   -4.39457534    6.21486753
 Au                -1.46485794   -4.39457534    6.21486753
 Au                 4.39457662   -1.46485806    6.21486753
 Au                 1.46485934   -1.46485806    6.21486753
 Au                -1.46485794   -1.46485806    6.21486753
 Au                 4.39457662    1.46485922    6.21486753
 Au                 1.46485934    1.46485922    6.21486753
 Au                -1.46485794    1.46485922    6.21486753

 1 2 1.0 10 1.0 11 1.0 4 1.0 13 1.0 14 1.0
 2 3 1.0 12 1.0 5 1.0 15 1.0 11 1.0 14 1.0
 3 12 1.0 6 1.0 15 1.0
 4 5 1.0 7 1.0 13 1.0 14 1.0 16 1.0 17 1.0
 5 6 1.0 8 1.0 15 1.0 18 1.0 14 1.0 17 1.0
 6 9 1.0 15 1.0 18 1.0
 7 8 1.0 16 1.0 17 1.0
 8 9 1.0 18 1.0 17 1.0
 9 18 1.0
 10 11 1.0 19 1.0 20 1.0 22 1.0 23 1.0 13 1.0
 11 12 1.0 21 1.0 24 1.0 20 1.0 23 1.0 14 1.0
 12 21 1.0 24 1.0 15 1.0
 13 22 1.0 23 1.0 14 1.0 16 1.0 25 1.0 26 1.0
 14 24 1.0 15 1.0 27 1.0 23 1.0 17 1.0 26 1.0
 15 24 1.0 18 1.0 27 1.0
 16 17 1.0 25 1.0 26 1.0
 17 18 1.0 27 1.0 26 1.0
 18 27 1.0
 19 20 1.0 22 1.0 28 1.0
 20 21 1.0 23 1.0 28 1.0 29 1.0
 21 24 1.0 30 1.0 29 1.0
 22 23 1.0 28 1.0 25 1.0 31 1.0
 23 24 1.0 28 1.0 29 1.0 26 1.0 31 1.0 32 1.0
 24 30 1.0 27 1.0 33 1.0 29 1.0 32 1.0
 25 26 1.0 31 1.0 34 1.0
 26 27 1.0 31 1.0 32 1.0 34 1.0 35 1.0
 27 33 1.0 36 1.0 32 1.0 35 1.0
 28 29 1.0 31 1.0
 29 30 1.0 32 1.0
 30 33 1.0
 31 32 1.0 34 1.0
 32 33 1.0 35 1.0
 33 36 1.0
 34 35 1.0
 35 36 1.0
 36

