%mem=30GB
%nprocshared=12
%chk=heme_2his_oo.chk
#p opt=(modredundant,maxcycle=500) b3lyp/genecp nosymm
scf=(qc,conver=6,novaracc) geom=connectivity int=ultrafine

heme_2his_oo

0 1
 C                  2.34380400   -2.63282200    0.06467500
 C                  2.33421300    2.14177400    0.70991300
 C                 -2.47590400    2.16810600    0.36408900
 C                 -2.46711200   -2.60103500   -0.29533100
 C                  2.76418100   -1.32602800    0.28934700
 C                  4.15738500   -0.92632400    0.41083600
 C                  4.15205600    0.42938300    0.59964600
 C                  2.75880500    0.83271100    0.57247800
 C                  5.31610900    1.35713200    0.78225000
 C                  5.33577100   -1.83153400    0.20402300
 C                  5.61977800   -2.02788100   -1.29473500
 C                  6.75431300   -2.98167000   -1.56851300
 O                  7.01636500   -3.08107900   -2.89659200
 O                  7.37828100   -3.60608600   -0.73744500
 C                  1.01100100    2.55539000    0.66304000
 C                  0.61302900    3.93763600    0.82828300
 C                 -0.75204400    3.96237500    0.69945900
 C                 -1.15781200    2.57173000    0.49678800
 C                  1.54988300    5.08685000    1.04740100
 C                 -1.59679900    5.15535100    0.75417600
 C                 -2.68797100    5.42407500    0.02139500
 C                 -2.89519900    0.86611200    0.13786500
 C                 -4.28571600    0.48893600   -0.01920300
 C                 -4.29013800   -0.87380200   -0.21031000
 C                 -2.89321800   -1.28940900   -0.14510500
 C                 -5.45555100    1.42010300    0.07181400
 C                 -5.41417200   -1.78509300   -0.39208800
 C                 -6.60331900   -1.50495100   -0.94927800
 C                 -1.14822200   -3.01595500   -0.23639400
 C                 -0.74700300   -4.40783100   -0.36397100
 C                  0.61303500   -4.41939200   -0.25106700
 C                  1.01954500   -3.03260700   -0.07026600
 C                 -1.68470600   -5.56314400   -0.54805000
 C                  1.53813900   -5.59550200   -0.15571900
 C                  1.86784700   -5.90438400    1.31616400
 C                  2.94030100   -6.94720800    1.48541800
 O                  3.44214800   -6.95462800    2.75174900
 O                  3.33759600   -7.71175200    0.63408200
 N                  1.92758200   -0.24297900    0.36664800
 N                 -0.07226900    1.73249900    0.47084500
 N                 -2.06052000   -0.22334700    0.05957400
 N                 -0.06372200   -2.19381000   -0.04420200
 Fe                -0.06576800   -0.22945900    0.20424000
 H                  3.10784500   -3.40025300   -0.00434900
 H                  3.09063500    2.90206300    0.87034000
 H                 -3.23598200    2.93275600    0.44894600
 H                 -3.22012900   -3.35980400   -0.47317400
 H                  6.26172900    0.80943100    0.82544000
 H                  5.39437100    2.08282700   -0.03699000
 H                  5.22887300    1.93478500    1.71013400
 H                  5.17714900   -2.81394800    0.66226500
 H                  6.22990600   -1.42244900    0.68504500
 H                  4.72873400   -2.40780800   -1.80922500
 H                  5.85053800   -1.07063400   -1.77680100
 H                  2.18154000    4.93181600    1.93034700
 H                  2.22288400    5.23110000    0.19264900
 H                  1.00459100    6.02325100    1.18887200
 H                 -1.26487200    5.92258300    1.45476000
 H                 -3.05944700    4.74595200   -0.73991700
 H                 -3.22899500    6.35651600    0.15126400
 H                 -6.34795800    0.88329200    0.40701400
 H                 -5.69909000    1.87970600   -0.89564800
 H                 -5.26802900    2.23516600    0.77737400
 H                 -5.25969100   -2.80119600   -0.02949100
 H                 -6.83365900   -0.53461600   -1.37619200
 H                 -7.38051700   -2.26057600   -1.01102900
 H                 -1.14004200   -6.50283700   -0.67594700
 H                 -2.32168000   -5.43150600   -1.43098700
 H                 -2.35500200   -5.68520500    0.31188200
 H                  2.47230600   -5.41235800   -0.69868700
 H                  1.09743700   -6.48357200   -0.61788000
 H                  2.17700400   -4.99866500    1.84599500
 H                  0.97097900   -6.25519700    1.84277800
 H                  7.74694500   -3.71712800   -2.97813500
 H                  4.10089100   -7.66969800    2.76703400
 N                  4.45965937   -2.01812437    9.07492928
 C                  3.81215337   -1.64972237    7.80454728
 C                  3.37667237   -0.16711937    7.85494528
 O                  2.34804537    0.26988363    7.40652228
 C                  2.62162637   -2.53740037    7.32869928
 C                  2.16666437   -2.29094137    5.91647428
 N                  2.79277637   -2.85713337    4.80963828
 C                  1.18004837   -1.49432837    5.38404928
 C                  2.18855037   -2.39535737    3.68258628
 N                  1.20682737   -1.58043337    4.01706828
 N                  0.89533800   -1.62196800   -6.48733600
 C                 -0.48546600   -1.67033200   -6.07116200
 C                 -1.43267600   -1.93097200   -7.23034600
 O                 -2.62482700   -1.76243800   -7.17842200
 C                 -0.93355800   -0.38970500   -5.32257000
 C                 -0.32442700   -0.25055300   -3.96783000
 N                  1.04221500   -0.22309600   -3.76470600
 C                 -0.87300200   -0.13939100   -2.71466000
 C                  1.26816800   -0.11776800   -2.43196200
 N                  0.12621600   -0.06624800   -1.75966000
 O                 -0.45008663   -0.45020537    2.25693828
 O                  0.40485837   -0.20404937    3.17896628
 H                  1.77265937   -2.37992437    8.00134928
 H                  2.92424637   -3.58630537    7.44414128
 H                  0.48642537   -0.84192937    5.88918128
 H                  3.54351637   -3.53299137    4.82862028
 H                  2.47813037   -2.64872337    2.67414328
 H                  4.59837837   -1.68637537    7.03784128
 H                  3.77566537   -2.12036137    9.82041728
 H                  4.96058037   -2.89622937    8.98357628
 H                 -2.02046800   -0.41974600   -5.22396900
 H                 -0.69780900    0.47756800   -5.95657700
 H                 -1.91335600   -0.11712200   -2.43629500
 H                  1.71735300   -0.41646300   -4.49257900
 H                  2.25116400   -0.09680100   -1.99524900
 H                 -0.60920100   -2.52119300   -5.38844700
 H                  1.27705400   -2.53351100   -6.71305400
 H                  1.04295500   -0.99830400   -7.27486800
 S                 -0.62378400   -2.56458000   -8.75422500
 H                 -1.80293600   -2.72058900   -9.38577100
 S                  4.59208337    0.87450463    8.72303328
 H                  3.95376137    2.01049463    8.37202728

 1 5 1.0 32 2.0 44 1.0
 2 15 1.0 8 2.0 45 1.0
 3 22 2.0 18 1.0 46 1.0
 4 25 1.0 29 2.0 47 1.0
 5 39 2.0 6 1.0
 6 7 2.0 10 1.0
 7 8 1.0 9 1.0
 8 39 1.0
 9 48 1.0 49 1.0 50 1.0
 10 11 1.0 51 1.0 52 1.0
 11 12 1.0 53 1.0 54 1.0
 12 13 1.0 14 2.0
 13 74 1.0
 14
 15 16 2.0 40 1.0
 16 17 1.0 19 1.0
 17 18 2.0 20 1.0
 18 40 1.0
 19 55 1.0 56 1.0 57 1.0
 20 21 2.0 58 1.0
 21 59 1.0 60 1.0
 22 23 1.0 41 1.0
 23 24 2.0 26 1.0
 24 25 1.0 27 1.0
 25 41 2.0
 26 61 1.0 62 1.0 63 1.0
 27 28 2.0 64 1.0
 28 65 1.0 66 1.0
 29 42 1.0 30 1.0
 30 31 2.0 33 1.0
 31 32 1.0 34 1.0
 32 42 1.0
 33 67 1.0 68 1.0 69 1.0
 34 35 1.0 70 1.0 71 1.0
 35 36 1.0 72 1.0 73 1.0
 36 38 2.0 37 1.0
 37 75 1.0
 38
 39 43 0.5
 40 43 1.0
 41 43 0.5
 42 43 1.0
 43
 44
 45
 46
 47
 48
 49
 50
 51
 52
 53
 54
 55
 56
 57
 58
 59
 60
 61
 62
 63
 64
 65
 66
 67
 68
 69
 70
 71
 72
 73
 74
 75
 76 77 1.0 104 1.0 105 1.0
 77 78 1.0 80 1.0 103 1.0
 78 79 2.0 116 1.0
 79
 80 81 1.0 98 1.0 99 1.0
 81 82 1.0 83 2.0
 82 84 1.0 101 1.0
 83 85 1.0 100 1.0
 84 85 2.0 102 1.0
 85
 86 87 1.0 112 1.0 113 1.0
 87 88 1.0 90 1.0 111 1.0
 88 89 2.0 114 1.0
 89
 90 91 1.0 106 1.0 107 1.0
 91 93 2.0 92 1.0
 92 94 1.0 109 1.0
 93 95 1.0 108 1.0
 94 95 2.0 110 1.0
 95
 96 97 2.0
 97
 98
 99
 100
 101
 102
 103
 104
 105
 106
 107
 108
 109
 110
 111
 112
 113
 114 115 1.0
 115
 116 117 1.0
 117

X 36 F
X 12 F
X 76 F
X 78 F
X 86 F
X 88 F
B 97 85 F
B 114 116 F
B 43 96 F
B 43 39 F
B 43 40 F
B 43 41 F
B 43 42 F
B 43 95 F
D 39 42 40 15 F
D 39 42 40 18 F
D 41 42 40 15 F
D 41 42 40 18 F
D 40 39 41 22 F
D 40 39 41 25 F
D 42 39 41 22 F
D 42 39 41 25 F
D 41 40 42 29 F
D 41 40 42 32 F
D 39 40 42 29 F
D 39 40 42 32 F
D 42 41 39 5 F
D 42 41 39 8 F
D 40 41 39 5 F
D 40 41 39 8 F

1-42 44-117
6-31g(d,p)
****
43
LanL2DZ
****

43
LanL2DZ



